Header
  CHECK KEYWORDS Warn
  Mesh DB "." "mesh_Elmer"
  Include Path ""
  Results Directory ""
End

Simulation
  Max Output Level = 3
  Coordinate System = Cartesian
  Angular Frequency = $2*pi*100

  Simulation Type = Steady
  Steady State Max Iterations = 1000000
  Steady State Min Iterations = 1000000


  Solver Input File = case.sif
  Post File = case.vtu
  Output Intervals(1) = 100
End

Constants
  Permittivity of Vacuum = 8.8542e-12
  Permeability of Vacuum = 1.257e-6
End

Body 1
  Target Bodies(1) = 1
  Name = "left"
  Equation = 1
  Material = 1
  Body Force = 1
End

Body 2
  Target Bodies(1) = 2
  Name = "melt"
  Equation = 1
  Material = 2
End

Body 3
  Target Bodies(1) = 3
  Name = "air"
  Equation = 1
  Material = 1
End

Body 4
  Target Bodies(1) = 4
  Name = "right"
  Equation = 1
  Material = 1
  Body Force = 2
End

Solver 1
  Equation = OpenFOAM2Elmer
  Procedure = "OpenFOAM2Elmer" "OpenFOAM2ElmerSolver"

  Target Variable 1 = String "Electric Conductivity"
End

Solver 2
  Equation = "MDynamics"
  Variable = A[A re:1 A im:1]
  Procedure = "MagnetoDynamics2D" "MagnetoDynamics2DHarmonic"

  Linear System Symmetric = True

  Linear System Solver = "Iterative"
  Linear System Preconditioning = None
  Linear System Residual Output = 10
  Linear System Max Iterations = 1000
  Linear System Iterative Method = BiCGStabl
  Linear System Convergence Tolerance = 1.0e-8

  Steady State Convergence Tolerance = 1e-08
  Nonlinear System Max Iterations = 3
  Nonlinear System Convergence Tolerance = 1.0e-6
  Nonlinear System Relaxation Factor = 1

  Exported Variable 1 = String "OF conductivity"
End

Solver 3
  Equation = "Postprocess"

  Potential Variable = String "A"
  Procedure = "MagnetoDynamics" "MagnetoDynamicsCalcFields"

  Linear System Solver = Iterative
  Linear System Iterative Method = CG
  Linear System Symmetric = True
  Linear System Max Iterations = 100
  Linear System Preconditioning = None
  Linear System Convergence Tolerance = 1.0e-8
  Steady State Convergence Tolerance = 1e-08

  Nonlinear System Max Iterations = 3
  Nonlinear System Convergence Tolerance = 1.0e-8

  Calculate Current Density = Logical True
  Calculate Magnetic Field Strength = Logical True
  Calculate JxB = Logical True
  Calculate Joule Heating = True
End

Solver 4
  Equation = ElmerToOpenFOAM
  Procedure = "Elmer2OpenFOAM" "Elmer2OpenFOAMSolver"

  Target Variable 1 = jxb re 1
  Target Variable 2 = jxb re 2
  Target Variable 3 = jxb re 3
End 

Equation 1
  Name = "MGDyn"
  Active Solvers(4) = 1 2 3 4
  Magnetic Induction = Logical True
End

Material 1
  Name = "Air"
  Electric Conductivity = 0
  Relative Permittivity = 1
  Relative Permeability = 1
End

Material 2
  Name = "Conductor"
  Electric Conductivity = Equals "OF conductivity"
  Relative Permittivity = 1
  Relative Permeability = 1
End

Body Force 1
  Name = "Current pos"
  Current Density = Real 4e9
End

Body Force 2
  Name = "Current neg"
  Current Density = Real -4e9
End

Boundary Condition 1
  Target Boundaries(1) = 8
  A Re = Real 0.0
  A Im = Real 0.0
End
