Check Keywords "Warn"

Header :: Mesh DB "." "meshElmer"

Simulation
  Max Output Level = 4
  Coordinate System = Cartesian
  Simulation Type = Steady
  Output Intervals(1) = 1
  Steady State Max Iterations = 1
  Post File   = "case.vtu"
  vtu: save bulk only = Logical True

  Simulation Timing = Logical True
End

Body 1
  Equation = 1
  Material = 1
  Body Force = 1
  Initial Condition = 1
End

Initial Condition 1
  Exact Field = Variable "Coordinate"
    Real MATC "2*sin(2*pi*tx(0))*cos(2*pi*tx(1))"
  Ip Coordinate 1 = Equals "Coordinate 1"
  Ip Coordinate 2 = Equals "Coordinate 2"
  Ip Coordinate 3 = Equals "Coordinate 3"
End 

Material 1
  diffusion coefficient = real 0.0
  reaction coefficient = real 1.0 
End

Body Force 1
  Field Source = Equals "ip field"
  dField = Variable "exact field, field"
    Real MATC "tx(0)-tx(1)"
End 

Equation 1
  Active Solvers(3) = 1 2 3
End 

Solver 1
  Equation = "NameA"
  Equation = ElmerToOpenFOAM
  Procedure = "Elmer2OpenFOAM" "Elmer2OpenFOAMSolver"

  Target Variable 1 = "exact field"
  Solver Timing = Logical True
End 

Solver 2
  Equation = "NameB"
  Equation = OpenFOAM2Elmer
  Procedure = "OpenFOAM2Elmer" "OpenFOAM2ElmerSolver"

  Interpolate Coordinate = String "ip coordinate"
  Target Variable 1 = String "ip field"
  Solver Timing = Logical True
End

Solver 3
  Equation = "ModelPDE"
  Variable = "Field"
  Procedure = "InterpolationTester" "InterpolationTester"

  Linear System Solver = "Iterative"
  Linear System Iterative Method = "BiCGStab"
  Linear System Max Iterations = 350
  Linear System Convergence Tolerance = 1.0e-08
  Linear System Abort Not Converged = True
  Linear System Preconditioning = none
  Linear System Residual Output = 1
  Steady State Convergence Tolerance = 1.0e-05

  Exported Variable 1 = -ip "ip field"
  Exported Variable 2 = "exact field"
  Exported Variable 3 = "dfield"
  Exported Variable 4 = -dofs 3 -ip "ip coordinate"

  Update Exported Variables = Logical True
  Optimize Bandwidth = Logical False

  Solver Timing = Logical True
End

Solver 4
  Exec Solver = after all 
  Equation = "SaveScalars"
  Procedure = "SaveData" "SaveScalars"
  Filename = f.dat

  File Append = True
  Variable 1 = Field
  Operator 1 = Norm
  Operator 2 = dofs
  Operator 3 = partitions 

  Parallel Reduce = Logical True
End 

Solver 3
  Reference Norm = Real 9.18915664E-01
  Reference Norm Tolerance = Real 1E-8
End 
